ca_results/winter/N-1/inlf/N1_lines_with_realweather_T.csv
Contingency,Converged,FromBus#,ToBus#,CKT,Pij(MW),Qij(MVAr),Sij(MVA),Pji(MW),Qji(MVAr),Sji(MVA),RateA,Ploss(MW),Qloss(MVAr),Loading_%,Violation,Current(A),Tcond(degC),lat_mid,lon_mid,bearing_deg,length_km,weather_site_id,weather_site_distance_km,weather_site_elevation_m,air_temperature,ghi,surface_pressure,surface_pressure_pa,wind_direction,wind_speed,wind_conductor_angle_deg,Tcond_realweather(degC),Ampacity_at_75C(A),Loading_realweather_%
LT_101-102_A1,True,101.0,103.0,A2,6.882832,3.392387,7.67344,-6.833069,-3.202038,7.546117,175.0,0.049763,0.190349,4.38,False,33.40102613797048,8.064489364624023,33.4664680426,-114.25302055200001,281.65513948457516,78.99713734402492,272693,27.889914770408065,91.0,11.399999618530273,39.0,1008.0,100800.0,46.0,0.8999999761581421,124.34486051542484,11.925632477647014,1207.2596147715283,2.766681311069249
LT_101-102_A1,True,101.0,105.0,A3,27.917418,-10.832301,29.945299,-27.709066,11.63494,30.05269,175.0,0.208352,0.802639,17.11,False,130.34619604875274,8.842687606811523,33.527831551000006,-113.917332536,332.7077807708397,32.97810897483768,272693,55.37740896846629,91.0,11.399999618530273,39.0,1008.0,100800.0,46.0,0.8999999761581421,73.29221922916031,12.619194795650401,1229.6505437140033,10.60026336060151
LT_101-102_A1,True,102.0,104.0,A4,16.826632,7.004494,18.226313,-16.699625,-6.517144,17.926256,175.0,0.127006,0.487351,10.42,False,79.2100448989718,8.317403793334961,33.58499098295,-113.82567627200001,0.053868993317280456,50.552094829892674,273508,61.87228040205209,89.0,11.0,39.0,1005.0,100500.0,46.0,0.8999999761581421,45.94613100668272,11.79820442199707,1188.8033143376833,6.663006734894746
LT_101-102_A1,True,102.0,106.0,A5,18.509203,-11.565975,21.825727,-18.279063,12.447127,22.11459,175.0,0.23014,0.881152,12.47,False,94.85279966511608,8.45067024230957,33.54785744425,-114.003928834,322.14286051780334,53.63905217588826,272693,47.56965144659038,91.0,11.399999618530273,39.0,1008.0,100800.0,46.0,0.8999999761581421,83.85713948219666,12.239646912963508,1243.6007387549291,7.627271093460511
LT_101-102_A1,True,103.0,109.0,A6,-0.366804,-2.927178,2.95007,0.367639,2.930373,2.953344,175.0,0.000835,0.003195,1.69,False,13.072839822331868,8.017797470092773,33.72863454765,-114.48934004450001,38.03489934721705,54.229833774295344,273508,0.9566740748851706,89.0,11.0,39.0,1005.0,100500.0,46.0,0.8999999761581421,7.965100652782951,11.759000778198242,982.1313162479078,1.3310684229350087
LT_101-102_A1,True,103.0,124.0,A7,-73.202225,-5.235826,73.389229,73.323076,10.296697,74.042524,400.0,0.120851,5.06087,18.35,False,325.2145323336168,13.157796859741213,33.53989894155,-114.6634437025,62.122581397062504,1.4584863725043906,270245,1.1363138040058882,75.0,11.0,34.0,1008.0,100800.0,46.0,1.2000000476837158,163.8774186029375,17.454469680786133,1101.3763374781431,29.52801156762374
LT_101-102_A1,True,104.0,109.0,A8,-16.353468,2.909813,16.610327,16.439405,-2.579766,16.64059,175.0,0.085937,0.330047,9.49,False,73.47337097861647,8.274602890014648,33.8663698982,-114.066850007,285.22792751338363,46.175372092212655,277498,39.42199663193729,151.0,10.899999618530273,56.0,995.0,99500.0,59.0,0.6000000238418579,133.77207248661637,12.0423975009071,1100.9855773740946,6.673418116325749
LT_101-102_A1,True,105.0,110.0,A9,-4.003846,-15.757661,16.258373,4.060936,15.975451,16.483514,175.0,0.05709,0.21779,9.29,False,70.5785670378458,8.254175186157227,33.786176454599996,-114.14599382399999,316.1102545640957,39.125724159032,273508,31.981051974502726,89.0,11.0,39.0,1005.0,100500.0,46.0,0.8999999761581421,89.88974543590427,11.65233039855957,1258.1169733884544,5.609857313009485
LT_101-102_A1,True,106.0,110.0,10,-42.468033,-114.884445,122.482529,42.735331,116.045694,123.664512,175.0,0.267299,1.161248,69.99,False,527.098271803485,21.34444236755371,33.82541475805,-114.23744436449999,332.2035219612036,21.973081610449327,273508,25.547898565618038,89.0,11.0,39.0,1005.0,100500.0,46.0,0.8999999761581421,73.79647803879641,23.727052688598633,1233.1633021421167,42.74359047888203
LT_101-102_A1,True,107.0,108.0,11,142.602188,-6.87059,142.767609,-139.091083,20.217484,140.552751,175.0,3.511106,13.346894,81.58,False,619.9131312275578,26.29572868347168,34.57823637615,-113.7314761945,191.80450991680215,27.040331428742554,280694,48.23352083597048,170.0,11.399999618530273,52.0,996.0,99600.0,71.0,0.8999999761581421,59.19549008319785,29.405769376931858,1208.6474477943143,51.289822549896584
LT_101-102_A1,True,107.0,203.0,B1,117.556419,-4.884716,117.657867,-111.300681,28.794834,114.965143,175.0,6.255738,23.910118,67.23,False,510.8837869906859,20.553598403930664,35.0258321095,-113.838621218,341.18656177700467,77.23111035384919,273483,67.12170109617558,151.0,10.100000381469727,43.0,991.0,99100.0,71.0,1.2000000476837158,89.81343822299533,20.267728598639223,1340.5309799813035,38.11055429676166
LT_101-102_A1,True,108.0,109.0,1,29.006252,-7.630797,29.993195,-28.588656,9.228509,30.041249,175.0,0.417596,1.597712,17.14,False,132.35756821860207,8.868951797485352,34.18982353435,-114.034962272,220.15903880363092,78.21129921512714,280694,14.468759995973627,170.0,11.399999618530273,52.0,996.0,99600.0,71.0,0.8999999761581421,30.84096119636908,13.080659487550292,1125.1468742172656,11.76358138226884
LT_101-102_A1,True,108.0,110.0,2,33.701752,-26.672077,42.979153,-32.867544,29.863734,44.408536,175.0,0.834208,3.191657,24.56,False,189.6635611903045,9.770689010620115,34.1860019329,-114.0273040675,218.96149073017423,77.97500234740549,280694,15.230903469254052,170.0,11.399999618530273,52.0,996.0,99600.0,71.0,0.8999999761581421,32.03850926982577,14.048188023032708,1130.850761954863,16.771758712214123
LT_101-102_A1,True,109.0,111.0,14,-25.958199,-8.045793,27.176512,25.9747,8.736826,27.404692,400.0,0.016501,0.691033,6.79,False,120.17296157997106,8.718175888061523,33.91241117325,-114.304699342,159.67425780531744,1.9031858797390406,273502,18.441799885429408,97.0,10.699999809265137,44.0,998.0,99800.0,59.0,0.5,79.32574219468256,12.161027528019986,1111.4303798546346,10.81245966982553
LT_101-102_A1,True,109.0,112.0,15,-40.42907,-8.237312,41.259701,40.467105,9.830121,41.643941,400.0,0.038035,1.592808,10.31,False,182.44800742178,9.639368057250977,33.9156511436,-114.31084169450001,203.947168667828,1.1643839227143522,273502,17.80785802409589,97.0,10.699999809265137,44.0,998.0,99800.0,59.0,0.5,35.05283133217199,13.621598818246639,1038.1181103063589,17.574879545058494
LT_101-102_A1,True,110.0,111.0,16,-43.035286,29.882935,52.392994,43.092679,-27.479464,51.108708,400.0,0.057394,2.40347,13.1,False,224.11798673411343,10.466203689575195,33.9085895718,-114.2970411375,218.83185834528146,1.199999298332487,273502,19.225322946508676,97.0,10.699999809265137,44.0,998.0,99800.0,59.0,0.5,20.16814165471854,15.332292941924607,972.5705458947739,23.043879714445065
LT_101-102_A1,True,110.0,112.0,17,-57.995617,29.914867,65.256348,58.084652,-26.186335,63.714606,400.0,0.089035,3.728532,16.31,False,279.14269101286123,11.811513900756836,33.91182954215,-114.30318349000001,263.52385649728956,1.8981503306103409,273502,18.59008452775047,97.0,10.699999809265137,44.0,998.0,99800.0,59.0,0.5,155.47614350271044,17.06763420612515,994.5498949120797,28.067238500642347
LT_101-102_A1,True,111.0,113.0,18,-44.97855,9.784278,46.030445,45.125425,-8.61272,45.939992,500.0,0.146875,1.171558,9.21,False,121.10951344838806,8.728876113891602,34.1293332045,-114.287887337,2.7798809616962217,50.08528154115857,277498,4.623035951639475,151.0,10.899999618530273,56.0,995.0,99500.0,59.0,0.6000000238418579,56.22011903830378,12.512125971505156,1119.8532480993504,10.814766457474574
LT_101-102_A1,True,111.0,114.0,19,-24.088816,8.958424,25.700668,24.129905,-8.614286,25.621441,500.0,0.041089,0.344137,5.14,False,67.62036293106783,8.233747482299805,33.84073608285,-114.56051449450001,253.6860893720658,49.96150226236739,271871,2.0077707949584878,269.0,10.199999809265137,55.0,994.0,99400.0,59.0,0.699999988079071,165.3139106279342,11.568029976979233,993.5335673437644,6.806047138583599
LT_101-102_A1,True,112.0,113.0,20,-19.86871,7.909052,21.385012,19.904891,-7.620447,21.313749,500.0,0.036182,0.288605,4.28,False,56.21445795161704,8.164682388305664,34.132573174849995,-114.29402968950001,4.126021058856338,49.43428786192113,277498,4.172118022807155,151.0,10.899999618530273,56.0,995.0,99500.0,59.0,0.6000000238418579,54.87397894114366,11.881868936197861,1117.8071584882323,5.0289942701426025
LT_101-102_A1,True,112.0,123.0,21,-78.683029,8.447225,79.13517,79.538843,-1.549648,79.553938,500.0,0.855814,6.897577,15.83,False,208.02142577516753,10.126714706420898,34.14643314265,-114.691095425,307.21393123188295,87.0443510046333,269416,1.9810322366643094,324.0,8.899999618530273,53.0,976.0,97600.0,346.0,1.2999999523162842,38.78606876811705,11.369917110536335,1267.499283488054,16.411956084322952
LT_101-102_A1,True,113.0,123.0,22,-76.439491,3.931186,76.54052,77.169561,1.826093,77.191163,500.0,0.730069,5.757279,15.31,False,202.24572002706608,10.011930465698242,34.3681403032,-114.6717226875,272.6456124243665,72.95310639099516,270224,1.0590202066430323,388.0,8.899999618530273,43.0,971.0,97100.0,71.0,1.2000000476837158,158.3543875756335,11.685382275220036,1149.3614206940665,17.596355366176784
LT_101-102_A1,True,113.0,215.0,B2,17.650913,-22.232107,28.386992,-17.59105,22.679768,28.702211,500.0,0.059863,0.447661,5.68,False,75.00795182006294,8.285303115844727,34.7514356122,-114.425215633,342.78515118710203,92.50852375989442,273483,7.038480495579008,151.0,10.100000381469727,43.0,991.0,99100.0,71.0,1.2000000476837158,88.21484881289797,10.738314627586078,1336.7947023136414,5.611030002605773
LT_101-102_A1,True,114.0,116.0,23,-110.786758,-0.856124,110.790062,111.467601,8.866548,111.819684,500.0,0.680843,8.010425,22.16,False,292.8338197149087,12.190885543823242,33.71905866655,-115.07048464,254.58110202453383,48.11325865555416,262163,1.5254500733407452,387.0,9.100000381469727,50.0,990.0,99000.0,7.0,2.0,112.41889797546617,12.138543505625421,1487.8570198426282,19.681583365173218
LT_101-102_A1,True,115.0,116.0,24,11.654238,27.440325,29.812626,-11.632986,-27.260212,29.638582,500.0,0.021252,0.180113,5.96,False,77.82175415064702,8.306703567504883,33.5836074796,-115.325283222,2.6007230139453554,17.236067799848346,256615,1.991195585655014,994.0,4.800000190734863,47.0,910.0,91000.0,14.0,1.600000023841858,11.399276986054645,5.84339847483534,1151.5740507594417,6.757859305645609
LT_101-102_A1,True,115.0,121.0,1,-75.077347,2.47367,75.11808,75.44645,0.531848,75.448325,500.0,0.369103,3.005517,15.02,False,196.08540200479607,9.892282485961914,33.5166525943,-115.700143213,272.1450146356158,68.75953430638423,249642,1.4759306061184725,343.0,9.899999618530273,41.0,989.0,98900.0,14.0,1.399999976158142,101.85498536438422,11.679152491535206,1369.8872302838884,14.31398130225364
LT_101-102_A1,True,115.0,121.0,2,-75.077347,2.47367,75.11808,75.44645,0.531848,75.448325,500.0,0.369103,3.005517,15.02,False,196.08540200479607,9.892282485961914,33.5166525943,-115.700143213,272.1450146356158,68.75953430638423,249642,1.4759306061184725,343.0,9.899999618530273,41.0,989.0,98900.0,14.0,1.399999976158142,101.85498536438422,11.679152491535206,1369.8872302838884,14.31398130225364
LT_101-102_A1,True,115.0,124.0,26,73.740059,3.429864,73.819778,-73.32304,-0.341079,73.323833,500.0,0.417019,3.088785,14.76,False,192.69636344585487,9.827108383178713,33.524574389449995,-114.9929983545,86.0634407392426,62.52120431249092,263770,1.2987773397332119,181.0,9.0,49.0,991.0,99100.0,7.0,2.0999999046325684,100.9365592607574,10.461294174194336,1525.7012215159837,12.630019608582725
LT_101-102_A1,True,116.0,117.0,27,-101.06958,-2.712594,101.105972,101.404705,5.608508,101.559685,500.0,0.335125,2.895914,20.22,False,265.4054745341988,11.448678970336914,33.6181318947,-115.48093336950001,252.22842579087137,31.107139968025567,253477,1.9140400448987045,626.0,7.900000095367432,42.0,957.0,95700.0,14.0,1.399999976158142,121.77157420912863,11.031256388384463,1350.8931590506336,19.646666559531447
LT_101-102_A1,True,116.0,119.0,28,33.405262,15.873406,36.984818,-33.357896,-15.511331,36.787914,500.0,0.047366,0.362076,7.4,False,97.08598787667042,8.472070693969727,33.76505507735,-115.3450942825,349.13986505303745,23.556813083232125,256610,0.7090697519730219,173.0,9.800000190734863,33.0,999.0,99900.0,347.0,1.5,177.86013494696255,11.012710379591226,1029.0886267547437,9.434171688675006
LT_101-102_A1,True,117.0,118.0,29,-71.501457,16.438829,73.366844,71.619322,-15.616189,73.302065,500.0,0.117865,0.82264,14.67,False,191.86384377985377,9.81154441833496,33.55988168545,-115.720382362,257.0094374622221,15.136559396239369,248877,2.067412682375808,673.0,6.400000095367432,43.0,926.0,92600.0,14.0,1.399999976158142,116.99056253777792,8.260843753086192,1362.3515489784188,14.083284444732783
LT_101-102_A1,True,117.0,122.0,30,-29.903273,-17.013826,34.404594,30.0463,18.083391,35.06835,500.0,0.143027,1.069564,6.88,False,89.9724901418043,8.406896591186523,33.19704830715,-115.9825780325,217.2849118719248,105.44450604735857,244330,1.4502294277503673,-1.0,12.800000190734863,41.0,1020.0,102000.0,269.0,1.100000023841858,51.715088128075195,13.60214633877149,1237.1064220601147,7.27281732092021
LT_101-102_A1,True,118.0,121.0,1,-8.305682,-18.502665,20.281345,8.316268,18.594137,20.369149,500.0,0.010585,0.091472,4.06,False,53.09592711567596,8.14814567565918,33.53582614645,-115.9353669965,265.66484574225194,25.175829908557873,245078,0.7639325348498951,-54.0,13.0,33.0,1018.0,101800.0,14.0,1.2000000476837158,108.33515425774806,13.444356918334961,1291.0435236495446,4.112636494669324
LT_101-102_A1,True,118.0,121.0,2,-8.305682,-18.502665,20.281345,8.316268,18.594137,20.369149,500.0,0.010585,0.091472,4.06,False,53.09592711567596,8.14814567565918,33.53582614645,-115.9353669965,265.66484574225194,25.175829908557873,245078,0.7639325348498951,-54.0,13.0,33.0,1018.0,101800.0,14.0,1.2000000476837158,108.33515425774806,13.444356918334961,1291.0435236495446,4.112636494669324
LT_101-102_A1,True,119.0,120.0,1,-23.746029,1.713334,23.80776,23.778854,-1.451499,23.823114,500.0,0.032826,0.261835,4.76,False,62.84826376619394,8.203592300415039,34.056828753299996,-115.315800239,13.212646757626715,42.89429659955225,257390,1.5908349052243251,342.0,8.800000190734863,40.0,982.0,98200.0,346.0,1.600000023841858,152.78735324237329,9.422451209529754,1269.380798796245,4.951096142764489
LT_101-102_A1,True,119.0,120.0,2,-23.746029,1.713334,23.80776,23.778854,-1.451499,23.823114,500.0,0.032826,0.261835,4.76,False,62.84826376619394,8.203592300415039,34.056828753299996,-115.315800239,13.212646757626715,42.89429659955225,257390,1.5908349052243251,342.0,8.800000190734863,40.0,982.0,98200.0,346.0,1.600000023841858,152.78735324237329,9.422451209529754,1269.380798796245,4.951096142764489
LT_101-102_A1,True,120.0,123.0,1,-52.36668,3.119899,52.459538,52.458746,-2.446723,52.515774,500.0,0.092066,0.673176,10.49,False,138.62732704166424,8.951635360717773,34.31328943195,-115.1656291745,49.28215064958658,23.450450783620735,259756,2.2441267823391438,707.0,7.699999809265137,46.0,961.0,96100.0,2.0,1.5,132.71784935041342,8.907599259373455,1349.789656048974,10.27029110946413
LT_101-102_A1,True,120.0,123.0,2,-52.36668,3.119899,52.459538,52.458746,-2.446723,52.515774,500.0,0.092066,0.673176,10.49,False,138.62732704166424,8.951635360717773,34.31328943195,-115.1656291745,49.28215064958658,23.450450783620735,259756,2.2441267823391438,707.0,7.699999809265137,46.0,961.0,96100.0,2.0,1.5,132.71784935041342,8.907599259373455,1349.789656048974,10.27029110946413
LT_101-102_A1,True,121.0,122.0,34,-28.043016,-15.117201,31.858131,28.126352,15.745001,32.233472,500.0,0.083335,0.6278,6.37,False,83.00689170688942,8.347558975219727,33.172992768149996,-116.197562667,196.75137436176485,82.21478769358605,240603,1.5911941943704755,192.0,12.100000381469727,39.0,1005.0,100500.0,269.0,1.0,72.24862563823515,12.831004904528527,1246.662522252028,6.658328956335511
LT_101-102_A1,True,121.0,325.0,1,260.517578,-6.408199,260.596375,-251.741974,77.136638,263.294668,500.0,8.775604,70.728439,52.12,False,678.988201750848,29.812211990356445,33.88950639194999,-116.599877614,309.8193181099749,126.63031816801767,233264,1.7623985492877712,289.0,13.399999618530273,32.0,998.0,99800.0,218.0,0.6000000238418579,88.18068189002508,36.474330176362855,1139.6834608650836,59.576911051728175
LT_101-102_A1,True,123.0,217.0,B3,70.457771,-48.601749,85.594559,-69.716473,54.071293,88.227498,500.0,0.741298,5.469543,17.12,False,226.06130843586723,10.509004592895508,34.73487458595,-114.99497599799999,9.71178695733397,79.62675421689616,263740,1.4324488671760864,638.0,6.800000190734863,45.0,945.0,94500.0,2.0,1.399999976158142,172.28821304266603,10.784155461047703,1079.2713780737913,20.945733670740513
LT_101-102_A1,True,201.0,202.0,B1,3.548229,-28.659191,28.878006,-3.5459,28.67003,28.888475,175.0,0.002329,0.010839,16.5,False,126.34190564044712,8.792104721069336,36.2728130805,-113.73374720749999,330.06786134221716,4.4011989362247,264540,155.6214060520281,765.0,6.099999904632568,35.0,930.0,93000.0,334.0,1.100000023841858,3.9321386577828434,8.024541950978346,1000.451025176622,12.62849479494935
LT_101-102_A1,True,201.0,203.0,B2,-33.895584,16.358234,37.636452,34.80274,-12.888246,37.112499,175.0,0.907156,3.469989,21.51,False,164.66029777905084,9.33781623840332,35.80503293055,-113.848714785,192.97069564697503,102.80891251473568,269393,112.52290251671089,362.0,8.100000381469727,43.0,964.0,96400.0,354.0,1.2999999523162842,161.02930435302497,10.159173390002252,1154.3678821911674,14.264109416012193
LT_101-102_A1,True,201.0,205.0,B3,23.103313,-9.913774,25.140524,-22.955992,10.481305,25.235596,175.0,0.147322,0.56753,14.37,False,109.9903404327638,8.603391647338867,36.1674465537,-113.852268562,230.19480725713623,30.595990672773983,264540,139.93990431001146,765.0,6.099999904632568,35.0,930.0,93000.0,334.0,1.100000023841858,103.80519274286377,7.002027225847087,1311.4431355508952,8.38696985413404
LT_101-102_A1,True,202.0,204.0,B4,10.809584,9.217079,14.205689,-10.725732,-8.895321,13.93442,175.0,0.083852,0.321758,8.12,False,62.0849730751439,8.198728561401367,36.24012743795,-113.98393331349999,255.58339309310898,44.09339369915581,260525,137.5558724758757,1528.0,1.7999999523162842,35.0,849.0,84900.0,334.0,1.0,78.41660690689102,2.4026431561674144,1303.6106948412735,4.76253940849291
LT_101-102_A1,True,202.0,206.0,B5,19.535233,-11.834855,22.840515,-19.278185,12.819028,23.151153,175.0,0.257048,0.984173,13.05,False,99.82287791865782,8.498334884643555,36.0386798677,-113.8181726305,193.11788205041233,57.370194606690454,264540,132.24501532331928,765.0,6.099999904632568,35.0,930.0,93000.0,334.0,1.100000023841858,140.88211794958767,7.019704914452632,1236.9316652391358,8.070201509422843
LT_101-102_A1,True,203.0,209.0,B6,49.588326,-14.722172,51.7276,-48.659356,18.277774,51.978938,175.0,0.928969,3.555602,29.56,False,230.72664211566243,10.612115859985352,35.5797547942,-114.0633830655,342.5346845645803,52.55291889027809,269393,81.32743088984492,362.0,8.100000381469727,43.0,964.0,96400.0,354.0,1.2999999523162842,11.465315435419711,11.99457339626315,1092.3827721729087,21.121409820178094
LT_101-102_A1,True,203.0,224.0,B7,-61.631233,-10.319671,62.489235,61.720004,14.037133,63.296129,400.0,0.088771,3.717462,15.62,False,278.72801676332415,11.800813674926758,35.355419888750006,-113.968093071,80.9533122476027,1.4399883635815744,270208,72.2396121632983,185.0,9.800000190734863,38.0,992.0,99200.0,69.0,1.2999999523162842,168.0466877523973,14.953674884518477,1090.5666856593286,25.558090158861983
LT_101-102_A1,True,204.0,209.0,B8,-25.674395,4.565872,26.077227,25.886377,-3.751739,26.156836,175.0,0.211982,0.814133,14.9,False,116.142112665008,8.671483993530273,35.9976998197,-114.18635032750001,171.49301131316565,43.3047846821941,264540,106.2828182492113,765.0,6.099999904632568,35.0,930.0,93000.0,334.0,1.100000023841858,162.50698868683435,7.468159962235404,1113.552249743203,10.42987544516134
LT_101-102_A1,True,205.0,210.0,B9,-11.968455,-15.264574,19.397194,12.054437,15.592586,19.708836,175.0,0.085982,0.328012,11.08,False,84.61485325625173,8.361177444458008,35.93352645830001,-114.072961317,206.60422896348982,36.22324095579948,264540,107.77888525794216,765.0,6.099999904632568,35.0,930.0,93000.0,334.0,1.100000023841858,127.39577103651018,6.831763172435785,1277.4135057269666,6.623920357574272
LT_101-102_A1,True,206.0,210.0,10,-47.619347,-115.573708,124.999535,47.95899,117.049247,126.493442,175.0,0.339643,1.47554,71.43,False,540.8131312324933,22.030229568481445,35.7876102904,-114.02661411900002,270.1901520712983,24.58276518571172,265345,100.34878020381882,697.0,6.300000190734863,36.0,935.0,93500.0,354.0,1.2999999523162842,83.80984792870169,17.70066145958299,1372.693477478342,39.397953010308974
LT_101-102_A1,True,207.0,208.0,11,-7.050681,18.400633,19.705212,7.124614,-18.119588,19.469967,175.0,0.073933,0.281045,11.26,False,86.77963575232599,8.379659652709961,35.9931404214,-113.2002752525,238.0869400541825,24.9097490232365,269393,168.936732686421,362.0,8.100000381469727,43.0,964.0,96400.0,354.0,1.2999999523162842,115.91305994581751,8.834990881714475,1336.7849086168276,6.491667821274026
LT_101-102_A1,True,208.0,209.0,1,-51.334225,13.228864,53.011368,52.732293,-7.879893,53.317796,175.0,1.398068,5.348971,30.29,False,236.20398927211676,10.736627578735352,35.869460766900005,-113.7342668105,259.4509328750614,76.42303064956775,269393,124.63888746734791,362.0,8.100000381469727,43.0,964.0,96400.0,354.0,1.2999999523162842,94.54906712493857,10.603951068744209,1367.672096829773,17.270513145631266
LT_101-102_A1,True,208.0,210.0,2,-39.904194,-10.813481,41.343395,40.718914,13.930578,43.035926,175.0,0.81472,3.117097,23.62,False,184.2147297359481,9.671468734741213,35.86081880785,-113.740291285,258.21609606641846,77.87575473426104,269393,123.57789086146938,362.0,8.100000381469727,43.0,964.0,96400.0,354.0,1.2999999523162842,95.78390393358154,9.794677159497951,1365.245665546744,13.49315616850357
LT_101-102_A1,True,209.0,211.0,14,-51.718555,-7.756534,52.296967,51.780353,10.344434,52.803525,400.0,0.061798,2.5879,13.07,False,232.55788166107612,10.65394401550293,35.803296077,-114.15919206150001,255.04753795152322,1.5606506659808639,264540,92.36331760486274,765.0,6.099999904632568,35.0,930.0,93000.0,334.0,1.100000023841858,78.95246204847678,8.767004872411235,1315.1741967599366,17.682667606618633
LT_101-102_A1,True,209.0,212.0,15,-64.322128,-7.351302,64.740845,64.416834,11.317288,65.403436,400.0,0.094706,3.965986,16.19,False,287.8942056075273,12.051782608032228,35.7982763547,-114.1484987875,164.51081322878485,1.5763836313303292,264540,92.71146744646519,765.0,6.099999904632568,35.0,930.0,93000.0,334.0,1.100000023841858,169.48918677121515,12.285795309578134,1058.0782607534306,27.209159878450308
LT_101-102_A1,True,210.0,211.0,16,-91.807106,35.183342,98.317909,92.010504,-26.665651,95.796606,400.0,0.203398,8.517691,24.58,False,421.9085140682097,16.62369728088379,35.79465411795,-114.165216536,344.5036493141338,1.5763988480578353,264540,91.3311064017178,765.0,6.099999904632568,35.0,930.0,93000.0,334.0,1.100000023841858,169.49635068586622,18.530671410652758,1058.018037182181,39.87725154401701
LT_101-102_A1,True,210.0,212.0,17,-104.84449,36.067482,110.874847,105.103161,-25.235135,108.090177,400.0,0.25867,10.832347,27.72,False,475.79370250144456,18.92035484313965,35.78963439565,-114.154523262,75.03993290589335,1.560647321312595,264540,91.68344274909107,765.0,6.099999904632568,35.0,930.0,93000.0,334.0,1.100000023841858,78.96006709410665,15.937633613618345,1315.1850146832476,36.176940672946756
LT_101-102_A1,True,211.0,213.0,18,-102.05722,11.029736,102.651505,102.765809,-5.377626,102.906415,500.0,0.708588,5.65211,20.53,False,271.25938013102837,11.601400375366213,35.9737901158,-114.3952240275,313.214519946109,56.101241393014526,260525,90.78880369689668,1528.0,1.7999999523162842,35.0,849.0,84900.0,334.0,1.0,20.78548005389098,7.003182555244621,1131.235527039358,23.979036517794114
LT_101-102_A1,True,211.0,214.0,19,-41.733639,5.291481,42.067757,41.834887,-4.443486,42.070207,500.0,0.101248,0.847994,8.41,False,111.16518639763468,8.616037368774414,35.68454797925,-114.33006002350001,228.5567635847391,39.217093492331436,264540,72.32209336765068,765.0,6.099999904632568,35.0,930.0,93000.0,334.0,1.100000023841858,105.44323641526091,7.015983295798833,1309.3734475971585,8.4899527023123
LT_101-102_A1,True,212.0,213.0,20,-80.221001,8.215944,80.640625,80.659183,-4.72075,80.797211,500.0,0.438182,3.495194,16.13,False,212.9793860314589,10.228853225708008,35.968770393499994,-114.3845307535,312.728141959339,58.27352990394753,260525,91.10269265356733,1528.0,1.7999999523162842,35.0,849.0,84900.0,334.0,1.0,21.271858040661016,5.216556120575206,1134.4964675085935,18.773032101119842
LT_101-102_A1,True,212.0,223.0,21,-89.298996,5.701905,89.48085,90.387566,3.071603,90.439741,500.0,1.08857,8.773508,17.9,False,236.32724194006516,10.739545822143556,35.80789751575,-114.84130532949999,272.07825544446206,125.42411855974576,257353,50.9569086479279,899.0,5.800000190734863,27.0,898.0,89800.0,334.0,0.8999999761581421,61.92174455553794,8.856878468986906,1239.2595409196622,19.07003610919834
LT_101-102_A1,True,213.0,223.0,22,-55.586784,-0.863661,55.593498,55.969931,3.885133,56.104612,500.0,0.383147,3.021472,11.12,False,146.89666377799966,9.067392349243164,35.985222525750004,-115.07967101,246.747631827701,89.64501743467814,253425,49.52932837718548,1082.0,7.199999809265137,21.0,905.0,90500.0,82.0,0.699999988079071,15.252368172298986,9.228859521552295,1007.0910517813055,14.586234632725041
LT_101-102_A1,True,214.0,216.0,23,-137.262253,-6.836864,137.432404,138.31051,19.170082,139.632694,500.0,1.048257,12.333218,27.49,False,363.8173040467295,14.438905715942385,35.4145503497,-114.6116655375,212.44947011073543,40.306364052426176,265345,34.124564386584666,697.0,6.300000190734863,36.0,935.0,93500.0,354.0,1.2999999523162842,141.55052988926457,12.569039149146192,1278.7406538164457,28.45121901465353
LT_101-102_A1,True,215.0,216.0,24,35.636147,-11.570543,37.467487,-35.606464,11.822106,37.517762,500.0,0.029683,0.251563,7.49,False,97.95291774631676,8.480825424194336,35.205040229,-114.65326848149999,311.7614206360051,18.865123622721175,266961,16.946118844596615,770.0,5.599999904632568,42.0,923.0,92300.0,354.0,1.2999999523162842,42.238579363994916,6.497350216262021,1295.684090564996,7.559938295113542
LT_101-102_A1,True,215.0,221.0,1,-85.680832,-32.288994,91.563004,86.208019,36.581747,93.648527,500.0,0.527187,4.292753,18.31,False,239.3772339046297,10.810556411743164,35.23245624485,-114.8868583705,288.44475129996886,59.50731844131268,265345,2.742624339204692,697.0,6.300000190734863,36.0,935.0,93500.0,354.0,1.2999999523162842,65.55524870003114,8.9527328470449,1346.9152934976514,17.77225598820087
LT_101-102_A1,True,215.0,221.0,2,-85.680832,-32.288994,91.563004,86.208019,36.581747,93.648527,500.0,0.527187,4.292753,18.31,False,239.3772339046297,10.810556411743164,35.23245624485,-114.8868583705,288.44475129996886,59.50731844131268,265345,2.742624339204692,697.0,6.300000190734863,36.0,935.0,93500.0,354.0,1.2999999523162842,65.55524870003114,8.9527328470449,1346.9152934976514,17.77225598820087
LT_101-102_A1,True,215.0,224.0,26,62.021889,6.358364,62.346958,-61.720004,-4.122356,61.857519,500.0,0.301885,2.236008,12.47,False,162.9964253729391,9.311552047729492,35.252514202,-114.2680134135,67.35719566640654,60.481416120695556,270208,43.88396367981343,185.0,9.800000190734863,38.0,992.0,99200.0,69.0,1.2999999523162842,1.6428043335934603,12.43845805912315,994.4616104475243,16.390419062993086
LT_101-102_A1,True,216.0,217.0,27,-140.058304,-42.889168,146.478027,140.748143,48.850266,148.984523,500.0,0.689839,5.961098,29.3,False,382.5336009510658,15.109128952026367,35.17461923495,-114.825963111,221.90828713981625,25.93674508970559,266153,3.0592867147694096,754.0,5.800000190734863,39.0,926.0,92600.0,354.0,1.2999999523162842,132.09171286018375,12.379997057543733,1313.7325784864074,29.118072217695538
LT_101-102_A1,True,216.0,219.0,28,65.003624,21.720535,68.536499,-64.847752,-20.529013,68.019639,500.0,0.155872,1.191522,13.71,False,178.98598374109125,9.579057693481444,35.34035338545,-114.85497218500001,307.96728213387195,28.554000463913425,264540,12.513730050764144,765.0,6.099999904632568,35.0,930.0,93000.0,334.0,1.100000023841858,26.032717866128053,8.32878427592641,1171.4417014583569,15.27912003800677
LT_101-102_A1,True,217.0,218.0,29,-64.13839,-65.119316,91.401634,64.309531,66.3138,92.375516,500.0,0.171142,1.194484,18.28,False,234.80586204689985,10.704526901245115,35.10132792,-114.999522918,282.00426444829014,14.57343843515518,263731,2.135943719328595,927.0,4.400000095367432,45.0,905.0,90500.0,354.0,1.399999976158142,71.99573555170986,6.975978182746076,1385.776077140074,16.943997368715273
LT_101-102_A1,True,217.0,222.0,30,-6.893278,-18.292301,19.548031,6.909104,18.410646,19.664374,500.0,0.015826,0.118345,3.91,False,50.217836043002485,8.133554458618164,35.70936497125,-115.1056865365,346.55568240887214,142.19993312364048,257353,26.265606048579304,899.0,5.800000190734863,27.0,898.0,89800.0,334.0,0.8999999761581421,167.44431759112786,6.48701763099416,1036.642115125143,4.8442789763505045
LT_101-102_A1,True,218.0,221.0,1,-12.178053,25.972006,28.685364,12.207856,-25.714469,28.465166,500.0,0.029803,0.257537,5.74,False,72.91194405199809,8.270711898803711,35.2156142699,-115.13791234499999,334.068802934961,24.91093291739191,260530,0.6477738589819187,1220.0,3.299999952316284,41.0,876.0,87600.0,354.0,1.2999999523162842,19.931197065038987,4.194502020055097,1175.8254825526112,6.200915453347109
LT_101-102_A1,True,218.0,221.0,2,-12.178053,25.972006,28.685364,12.207856,-25.714469,28.465166,500.0,0.029803,0.257537,5.74,False,72.91194405199809,8.270711898803711,35.2156142699,-115.13791234499999,334.068802934961,24.91093291739191,260530,0.6477738589819187,1220.0,3.299999952316284,41.0,876.0,87600.0,354.0,1.2999999523162842,19.931197065038987,4.194502020055097,1175.8254825526112,6.200915453347109
LT_101-102_A1,True,219.0,220.0,1,-12.0925,3.403566,12.562357,12.103364,-3.316904,12.549633,500.0,0.010865,0.086662,2.51,False,33.06981524580639,8.063516616821289,35.532956375,-115.2128843045,301.01727582000524,49.281334286649994,258141,6.324163197299666,954.0,5.699999809265137,32.0,905.0,90500.0,334.0,0.8999999761581421,32.98272417999476,6.226074600630454,1163.1782011025437,2.8430566541274973
LT_101-102_A1,True,219.0,220.0,2,-12.0925,3.403566,12.562357,12.103364,-3.316904,12.549633,500.0,0.010865,0.086662,2.51,False,33.06981524580639,8.063516616821289,35.532956375,-115.2128843045,301.01727582000524,49.281334286649994,258141,6.324163197299666,954.0,5.699999809265137,32.0,905.0,90500.0,334.0,0.8999999761581421,32.98272417999476,6.226074600630454,1163.1782011025437,2.8430566541274973
LT_101-102_A1,True,220.0,223.0,1,-43.584553,4.428782,43.808987,43.648939,-3.958001,43.828023,500.0,0.064386,0.47078,8.76,False,115.60973151693186,8.665647506713867,35.73552259805,-115.491516237,337.70442527395744,21.35444911338634,253425,5.089453500966101,1082.0,7.199999809265137,21.0,905.0,90500.0,82.0,0.699999988079071,104.29557472604256,8.184096337137817,1188.0623470165208,9.73094819537482
LT_101-102_A1,True,220.0,223.0,2,-43.584553,4.428782,43.808987,43.648939,-3.958001,43.828023,500.0,0.064386,0.47078,8.76,False,115.60973151693186,8.665647506713867,35.73552259805,-115.491516237,337.70442527395744,21.35444911338634,253425,5.089453500966101,1082.0,7.199999809265137,21.0,905.0,90500.0,82.0,0.699999988079071,104.29557472604256,8.184096337137817,1188.0623470165208,9.73094819537482
LT_101-102_A1,True,221.0,222.0,34,6.922256,-16.425575,17.824621,-6.909103,16.524655,17.910889,500.0,0.013152,0.09908,3.56,False,45.63630007948035,8.112154006958008,35.823651321149995,-115.2440759635,355.81008268792635,113.13137799107704,253425,27.06993274564634,1082.0,7.199999809265137,21.0,905.0,90500.0,82.0,0.699999988079071,86.18991731207365,7.5839132311975845,1202.0995319292117,3.7963828175059757
LT_101-102_A1,True,223.0,318.0,1,175.267014,-69.033417,188.372345,-170.34924,108.26041,201.839491,500.0,4.917773,39.226994,37.67,False,497.1417679139424,19.901857376098633,35.6650814384,-116.25650849249999,255.190966299923,134.83363637092583,239061,1.6960774471141216,224.0,8.399999618530273,23.0,987.0,98700.0,112.0,0.5,36.80903370007701,24.47554590856089,1061.673919288217,46.82622026236111
LT_101-102_A1,True,301.0,302.0,C1,12.867926,-36.615223,38.810539,-12.855245,36.674225,38.862014,175.0,0.01268,0.059002,22.18,False,167.9857080118053,9.392290115356444,35.03875954075,-118.843312456,243.44298077505434,4.386662067124732,193839,1.9317872823073838,197.0,6.900000095367432,6.0,997.0,99700.0,329.0,1.0,85.55701922494566,8.1523901934479,1315.1419372435073,12.773199854298435
LT_101-102_A1,True,301.0,303.0,C2,-32.117798,17.825998,36.733078,32.972,-14.558562,36.043093,175.0,0.854202,3.267436,20.99,False,158.99372372238554,9.248323440551758,35.132562363350004,-118.432657652,74.8245157929639,73.24899856739759,201352,1.1569499647389767,1234.0,1.399999976158142,8.0,876.0,87600.0,306.0,1.100000023841858,51.17548420703611,2.6835696936884688,1301.7711182066732,12.21364658492471
LT_101-102_A1,True,301.0,305.0,C3,4.447682,0.299305,4.457742,-4.442582,-0.279656,4.451375,175.0,0.005101,0.019649,2.55,False,19.294680396063573,8.027524948120117,34.96073353885,-118.666126353,124.16098495024664,34.31766044565577,197187,1.159579646235395,1318.0,0.10000000149011612,7.0,881.0,88100.0,329.0,1.0,24.839015049753357,0.23107776790777734,1180.5489484818738,1.6343820746166904
LT_101-102_A1,True,302.0,304.0,C4,-2.250092,17.04244,17.190338,2.374039,-16.56683,16.736066,175.0,0.123947,0.475611,9.82,False,74.26829258798921,8.280439376831055,34.83101416905,-118.714222427,148.04905085666337,52.08829416605541,196510,2.4486343801899135,1006.0,0.8999999761581421,12.0,890.0,89000.0,329.0,1.0,0.9509491433366293,1.6597177267801726,1017.7681307204012,7.297172150145858
LT_101-102_A1,True,302.0,306.0,C5,7.355184,-4.567956,8.658231,-7.323904,4.687721,8.695648,175.0,0.03128,0.119764,4.95,False,37.40659626369175,8.078107833862305,34.95855226255,-118.57052961950001,106.3161668365982,55.94519037768375,198553,1.5187727987860509,1572.0,-3.5,8.0,820.0,82000.0,329.0,1.0,42.6838331634018,-3.315781593322754,1276.2560299250708,2.93096333232509
LT_101-102_A1,True,303.0,309.0,C6,11.847157,-8.064562,14.331515,-11.782952,8.310305,14.418708,175.0,0.064205,0.245743,8.19,False,63.52853701038948,8.207483291625977,34.976650231700006,-118.08544598200001,188.13452627185995,54.11331791886194,206968,1.4846723558012531,783.0,4.699999809265137,10.0,922.0,92200.0,306.0,1.399999976158142,117.86547372814005,4.9596691133610875,1378.9957023831596,4.6068698329226425
LT_101-102_A1,True,303.0,324.0,C7,-160.216202,4.088786,160.268372,160.792913,20.062169,162.03966,400.0,0.576711,24.150955,40.07,False,710.4353728267298,31.795644760131836,35.212062175599996,-118.039183389,146.93439430470073,1.454265274314389,208330,1.7152550570184055,708.0,6.300000190734863,10.0,934.0,93400.0,306.0,1.2999999523162842,159.06560569529927,32.25420263166416,1179.372196874502,60.23843657748428
LT_101-102_A1,True,304.0,309.0,C8,-49.815037,10.053017,50.819302,50.604216,-7.022115,51.089106,175.0,0.789179,3.030902,29.04,False,225.03009722680133,10.485658645629885,34.68392469455,-118.345463673,73.75738112970913,41.52056208016359,202769,0.8280799601706181,773.0,4.699999809265137,11.0,931.0,93100.0,351.0,0.800000011920929,97.24261887029087,7.283124544244856,1256.062145424916,17.915522575570925
LT_101-102_A1,True,305.0,310.0,C9,-41.075134,-6.558013,41.595364,41.499717,8.177748,42.297779,175.0,0.424583,1.619735,23.77,False,180.4515217031005,9.60434913635254,34.801600393499996,-118.30750604849999,113.32976259868565,40.40249884327066,203469,1.1424100378689062,748.0,5.0,10.0,935.0,93500.0,306.0,1.2999999523162842,12.670237401314353,7.131357192993164,1123.2299475602535,16.065412259978984
LT_101-102_A1,True,306.0,310.0,10,-79.86496,-111.930489,137.502167,80.817626,116.069238,141.433931,175.0,0.952666,4.13875,78.57,False,593.71844886133,24.82590675354004,34.808241774349995,-118.190362231,138.18711791697945,23.53186086187305,205576,0.9386546028337737,713.0,5.300000190734863,9.0,937.0,93700.0,306.0,1.2999999523162842,167.81288208302055,26.21829183855334,1117.3718756244896,53.13525978354394
LT_101-102_A1,True,307.0,308.0,11,-25.700802,21.972635,33.813129,25.914484,-21.160356,33.456257,175.0,0.213683,0.812279,19.32,False,150.7082864225865,9.122838973999023,34.16299173335,-118.7662179435,56.26178119320775,24.75670932515617,195171,1.4464621072353085,372.0,9.600000381469727,9.0,981.0,98100.0,45.0,2.0,168.73821880679225,10.838480756701756,1190.7173013414426,12.656932611359641
LT_101-102_A1,True,308.0,309.0,1,-73.230751,11.518675,74.131119,75.995543,-0.940655,76.001364,175.0,2.764791,10.57802,42.36,False,334.008077078504,13.437948226928713,34.4802378884,-118.39079997799999,40.21333607696363,74.5767423466253,202071,1.4426397722920923,762.0,6.0,14.0,943.0,94300.0,351.0,0.699999988079071,130.78666392303637,12.282341003417969,1172.0033618997882,28.498900936349298
LT_101-102_A1,True,308.0,310.0,2,-62.310917,-11.319178,63.330673,64.291216,18.895751,67.01052,175.0,1.980299,7.576573,36.19,False,285.34516400349406,11.980772018432615,34.4770168747,-118.37939134349999,41.771399382824995,75.41473787810489,202071,1.436609056439648,762.0,6.0,14.0,943.0,94300.0,351.0,0.699999988079071,129.228600617175,10.623680114746094,1175.321175428181,24.278058625085183
LT_101-102_A1,True,309.0,311.0,14,-98.76049,-9.896752,99.255127,98.979535,19.069688,100.799808,400.0,0.219045,9.172935,24.81,False,437.83605889757985,17.27543830871582,34.7389259,-118.11963760200001,63.413327538162264,1.5744173883172414,206974,2.0006750741101893,711.0,6.300000190734863,10.0,946.0,94600.0,351.0,0.800000011920929,107.58667246183774,15.694494621553531,1233.5919347057065,35.49277897978741
LT_101-102_A1,True,309.0,312.0,15,-128.247864,-4.220187,128.317276,128.613961,19.551266,130.091518,400.0,0.366098,15.331079,32.08,False,566.0355501062731,23.33468437194824,34.7293605034,-118.12361469999999,154.41113041358733,1.577419398220969,206278,1.4537852103916686,706.0,6.0,10.0,948.0,94800.0,351.0,0.800000011920929,16.58886958641267,27.47277069091797,1055.5943022541903,53.6224521956514
LT_101-102_A1,True,310.0,311.0,16,-140.6931,31.698406,144.219757,141.126427,-13.551943,141.77561,400.0,0.433327,18.146463,36.05,False,615.8194284608456,26.06226921081543,34.7357048863,-118.1082289675,334.52631029314165,1.573879005359757,206974,0.9642253309948795,711.0,6.300000190734863,10.0,946.0,94600.0,351.0,0.800000011920929,16.47368970685835,31.51885602884613,1052.3543162347505,58.518259388549296
LT_101-102_A1,True,310.0,312.0,17,-170.928909,38.637581,175.241409,171.568703,-11.844908,171.977097,400.0,0.639794,26.792673,43.81,False,748.2821118125536,34.2819881439209,34.726139489699996,-118.11220606549999,243.29540826571312,1.571676799018731,206974,1.1628829141889936,711.0,6.300000190734863,10.0,946.0,94600.0,351.0,0.800000011920929,107.70459173428688,32.713445642779334,1233.4644954987675,60.665070988522935
LT_101-102_A1,True,311.0,313.0,18,-144.666321,-27.031654,147.170151,146.052325,38.087224,150.936802,500.0,1.386004,11.05557,29.43,False,383.55071253231097,15.146093368530272,34.50368100025,-118.065394118,170.8349978934301,53.70230936357421,207669,1.5864932931362066,1163.0,4.599999904632568,17.0,919.0,91900.0,351.0,0.5,0.16500210656988656,19.400631242781856,994.5114808901782,38.56674557331386
LT_101-102_A1,True,311.0,314.0,19,-95.439651,21.513906,97.834427,95.965848,-17.106796,97.478646,500.0,0.526197,4.40711,19.57,False,254.9733348173324,11.185064315795898,34.8435290479,-117.8984061615,59.815032333039426,45.030436553750164,210340,0.7293270345475279,697.0,5.800000190734863,11.0,938.0,93800.0,306.0,1.2999999523162842,66.18496766696057,8.49543742923015,1355.925938036718,18.804370332093153
LT_101-102_A1,True,312.0,313.0,20,-91.66069,-40.047077,100.027252,92.287428,45.046299,102.694394,500.0,0.626738,4.999222,20.01,False,261.1345501875579,11.339731216430664,34.49411560365,-118.069371216,169.66021641891973,51.728822906200705,207669,0.9469890389000564,1163.0,4.599999904632568,17.0,919.0,91900.0,351.0,0.5,1.339783581080269,12.176541426742006,994.5114808901782,26.257570194546044
LT_101-102_A1,True,312.0,323.0,21,-208.521957,32.340721,211.015015,214.391193,14.96336,214.91274,500.0,5.869236,47.304081,42.2,False,550.8829836177623,22.54481315612793,34.4879832208,-117.61655421500001,119.24125114688786,106.0334140418212,215042,0.37812492327164215,1076.0,6.400000095367432,15.0,911.0,91100.0,223.0,0.800000011920929,103.75874885311214,21.237033933552993,1227.578370379008,44.875585698669504
LT_101-102_A1,True,313.0,323.0,22,-189.115326,51.172173,195.91629,193.570491,-16.039036,194.233843,500.0,4.455165,35.133137,39.18,False,498.8510894790757,19.98162269592285,34.25913575225,-117.56603806300001,90.68381410399729,83.24113817308535,215722,1.5973050712788772,2210.0,-1.7999999523162842,24.0,774.0,77400.0,223.0,0.6000000238418579,132.3161858960027,14.24247173959202,1151.5403670569958,43.32033020726793
LT_101-102_A1,True,314.0,316.0,23,-200.159195,0.200218,200.159286,202.342858,25.491566,203.942277,500.0,2.183663,25.691784,40.03,False,524.4872692448901,21.216039657592773,35.0416656677,-117.46823389549999,61.27736452675009,44.927729327005714,217731,1.1754647648536851,757.0,4.800000190734863,13.0,927.0,92700.0,242.0,1.100000023841858,0.722635473249909,26.79180544096198,994.8251614701093,52.72155244543932
LT_101-102_A1,True,315.0,316.0,24,-30.313448,26.492046,40.258335,30.349297,-26.188223,40.086193,500.0,0.035849,0.303824,8.05,False,103.32444768733146,8.533353805541992,35.2021686149,-117.31901108699999,139.1505915831454,18.746587950621127,220478,1.894277405563819,1001.0,3.5999999046325684,19.0,898.0,89800.0,242.0,0.8999999761581421,102.8494084168546,4.342083645154162,1276.3747740871343,8.095149621021717
LT_101-102_A1,True,315.0,321.0,1,-127.028763,-61.144745,140.978668,128.239207,71.001092,146.582568,500.0,1.210444,9.856347,28.2,False,361.8267622542182,14.369840621948242,35.50565725275,-117.25089816349998,24.63912469184521,58.68035354688509,221165,1.909962955671058,792.0,6.599999904632568,18.0,932.0,93200.0,12.0,0.5,167.3608753081548,18.098046402667933,981.2449558065101,36.87425449813636
LT_101-102_A1,True,315.0,321.0,2,-127.028763,-61.144745,140.978668,128.239207,71.001092,146.582568,500.0,1.210444,9.856347,28.2,False,361.8267622542182,14.369840621948242,35.50565725275,-117.25089816349998,24.63912469184521,58.68035354688509,221165,1.909962955671058,792.0,6.599999904632568,18.0,932.0,93200.0,12.0,0.5,167.3608753081548,18.098046402667933,981.2449558065101,36.87425449813636
LT_101-102_A1,True,315.0,324.0,26,162.798004,24.767384,164.671234,-160.792895,-9.915898,161.098355,500.0,2.005109,14.851485,32.93,False,422.6345750026999,16.65287971496582,35.2362759736,-117.71062519,263.78864241348344,59.25640398232974,213678,1.7859132718646786,892.0,4.599999904632568,18.0,904.0,90400.0,12.0,0.800000011920929,108.21135758651656,13.673408034989734,1235.457522726617,34.20874997547129
LT_101-102_A1,True,316.0,317.0,27,-160.519913,-86.448624,182.31842,161.557473,95.414486,187.629265,500.0,1.03756,8.965862,36.46,False,469.96960631060904,18.659658432006836,35.25840025645,-117.15370904899999,33.601264589227526,32.0703414274824,223263,1.5292915789926425,958.0,4.0,14.0,907.0,90700.0,257.0,0.8999999761581421,43.398735410772474,15.507320404052734,1219.1211992107142,38.549867446721265
LT_101-102_A1,True,316.0,319.0,28,-51.289837,35.370384,62.303383,51.417991,-34.390744,61.858977,500.0,0.128154,0.97964,12.46,False,160.60196430140786,9.273614883422852,35.0279991523,-117.188004079,154.70724354717186,27.138990967823084,222571,2.112861749248584,640.0,6.099999904632568,11.0,940.0,94000.0,242.0,1.2000000476837158,87.29275645282814,7.2281155590653725,1359.835127436097,11.81039973604852
LT_101-102_A1,True,317.0,318.0,29,-131.678162,-50.901924,141.174164,132.072272,53.652619,142.55416,500.0,0.39411,2.750695,28.23,False,353.7140515228745,14.090662002563477,35.44212331835,-117.01620042849999,26.8584961244473,15.879932652806714,225363,0.9337792042101049,1006.0,3.799999952316284,16.0,916.0,91600.0,257.0,0.800000011920929,50.1415038755527,10.562554503796946,1214.0353888167526,29.135398752059306
LT_101-102_A1,True,317.0,322.0,30,-29.879311,-39.160126,49.25737,30.113971,40.914925,50.802386,500.0,0.23466,1.7548,9.85,False,123.41510242668268,8.757085800170898,35.9086959435,-117.27055059599999,341.9673129068019,124.1052965213618,221155,2.268894183696831,816.0,7.099999904632568,11.0,926.0,92600.0,358.0,0.8999999761581421,16.032687093198092,8.318002415181581,1060.3516154070187,11.639073363349333
LT_101-102_A1,True,318.0,321.0,1,14.273235,-20.717802,25.158548,-14.257855,20.850707,25.259422,500.0,0.01538,0.132905,5.03,False,62.43311950017455,8.200674057006836,35.625578804750006,-117.045967096,334.8207162541743,29.440966906351033,224654,2.1245980851639903,744.0,6.5,14.0,950.0,95000.0,257.0,0.800000011920929,102.17928374582573,6.864584922790527,1238.6694860162027,5.040337249363539
LT_101-102_A1,True,318.0,321.0,2,14.273235,-20.717802,25.158548,-14.257855,20.850707,25.259422,500.0,0.01538,0.132905,5.03,False,62.43311950017455,8.200674057006836,35.625578804750006,-117.045967096,334.8207162541743,29.440966906351033,224654,2.1245980851639903,744.0,6.5,14.0,950.0,95000.0,257.0,0.800000011920929,102.17928374582573,6.864584922790527,1238.6694860162027,5.040337249363539
LT_101-102_A1,True,319.0,320.0,1,-83.728058,7.634573,84.075409,84.110297,-4.585617,84.235206,500.0,0.382239,3.048957,16.82,False,218.33989247691937,10.341691970825195,34.69004841255,-117.0939638955,173.7034075408551,50.917641569310206,223976,0.5349460739898468,1137.0,4.599999904632568,23.0,890.0,89000.0,225.0,1.100000023841858,51.296592459144904,7.081203747759901,1277.6246981096858,17.08951719546162
LT_101-102_A1,True,319.0,320.0,2,-83.728058,7.634573,84.075409,84.110297,-4.585617,84.235206,500.0,0.382239,3.048957,16.82,False,218.33989247691937,10.341691970825195,34.69004841255,-117.0939638955,173.7034075408551,50.917641569310206,223976,0.5349460739898468,1137.0,4.599999904632568,23.0,890.0,89000.0,225.0,1.100000023841858,51.296592459144904,7.081203747759901,1277.6246981096858,17.08951719546162
LT_101-102_A1,True,320.0,323.0,1,-125.140358,3.985322,125.203796,125.64416,-0.301592,125.644522,500.0,0.503802,3.683729,25.04,False,325.07283766440037,13.153905868530272,34.35773449745,-117.0883646675,191.09942568688564,23.73400695445522,223984,1.7037065959877034,1551.0,3.0,25.0,842.0,84200.0,225.0,1.0,33.90057431311436,9.132505416870117,1196.0176813992002,27.17960133198895
LT_101-102_A1,True,320.0,323.0,2,-125.140358,3.985322,125.203796,125.64416,-0.301592,125.644522,500.0,0.503802,3.683729,25.04,False,325.07283766440037,13.153905868530272,34.35773449745,-117.0883646675,191.09942568688564,23.73400695445522,223984,1.7037065959877034,1551.0,3.0,25.0,842.0,84200.0,225.0,1.0,33.90057431311436,9.132505416870117,1196.0176813992002,27.17960133198895
LT_101-102_A1,True,321.0,322.0,34,-24.208712,-34.008633,41.745045,24.322052,34.862477,42.508288,500.0,0.113341,0.853844,8.35,False,103.16804873871394,8.531408309936523,36.0921514299,-117.30031726349999,336.7951627128865,83.98330271350771,220456,0.23954791994549104,372.0,10.399999618530273,11.0,974.0,97400.0,358.0,1.0,21.20483728711349,11.18923988467941,1099.8439938605766,9.380243863184853
LT_101-102_A1,True,323.0,325.0,35,-251.741974,64.785744,259.944641,251.741974,-58.337813,258.413084,722.0,0.0,6.447931,36.0,False,672.8793043078186,29.43575859069824,34.252447341449994,-117.12109914749999,265.12388154306666,1.4534200752008906,223288,1.6967119263507657,1700.0,4.199999809265137,26.0,856.0,85600.0,225.0,0.699999988079071,139.87611845693334,30.533503934313558,1139.4748973284181,59.051700558339036
LT_101-103_A2,True,101.0,102.0,A1,7.495033,-33.330997,34.1633,-7.488454,33.361607,34.191721,175.0,0.006579,0.03061,19.52,False,148.70635285599772,9.093656539916992,33.3768908526,-113.8307877345,168.0832196909272,4.366718050928278,272693,66.37854754514882,91.0,11.399999618530273,39.0,1008.0,100800.0,46.0,0.8999999761581421,57.916780309072806,12.897711946974596,1210.9505572743788,12.280134144428462
LT_101-103_A2,True,101.0,105.0,A3,27.303854,-10.437197,29.230728,-27.105373,11.20181,29.328856,175.0,0.198481,0.764613,16.7,False,127.23580427551472,8.803777694702148,33.527831551000006,-113.917332536,332.7077807708397,32.97810897483768,272693,55.37740896846629,91.0,11.399999618530273,39.0,1008.0,100800.0,46.0,0.8999999761581421,73.29221922916031,12.583697511658102,1229.6505437140033,10.347314115050535
LT_101-103_A2,True,102.0,104.0,A4,20.931921,6.827839,22.017372,-20.750785,-6.132783,21.638071,175.0,0.181136,0.695056,12.58,False,95.68567294314347,8.458452224731445,33.58499098295,-113.82567627200001,0.053868993317280456,50.552094829892674,273508,61.87228040205209,89.0,11.0,39.0,1005.0,100500.0,46.0,0.8999999761581421,45.94613100668272,11.938608169555664,1188.8033143376833,8.048906979743132
LT_101-103_A2,True,102.0,106.0,A5,21.889162,-12.058474,24.990841,-21.580352,13.240834,25.318595,175.0,0.308811,1.182361,14.28,False,108.6081226451595,8.587827682495117,33.54785744425,-114.003928834,322.14286051780334,53.63905217588826,272693,47.56965144659038,91.0,11.399999618530273,39.0,1008.0,100800.0,46.0,0.8999999761581421,83.85713948219666,12.362522126783006,1243.6007387549291,8.7333594505497
LT_101-103_A2,True,103.0,109.0,A6,-4.980568,-6.348005,8.068657,4.998001,6.414728,8.131959,175.0,0.017433,0.066723,4.61,False,36.05212227520834,8.073244094848633,33.72863454765,-114.48934004450001,38.03489934721705,54.229833774295344,273508,0.9566740748851706,89.0,11.0,39.0,1005.0,100500.0,46.0,0.8999999761581421,7.965100652782951,11.84196662902832,982.1313162479078,3.6708046753809174
LT_101-103_A2,True,103.0,124.0,A7,-75.361023,-10.101416,76.035004,75.492908,15.624372,77.092802,400.0,0.131885,5.522957,19.01,False,339.73724021283283,13.623743057250977,33.53989894155,-114.6634437025,62.122581397062504,1.4584863725043906,270245,1.1363138040058882,75.0,11.0,34.0,1008.0,100800.0,46.0,1.2000000476837158,163.8774186029375,17.99146842956543,1101.3763374781431,30.846607889791798
LT_101-103_A2,True,104.0,109.0,A8,-12.306032,2.521749,12.561753,12.356135,-2.329326,12.573775,175.0,0.050103,0.192422,7.18,False,55.62672717358754,8.161764144897461,33.8663698982,-114.066850007,285.22792751338363,46.175372092212655,277498,39.42199663193729,151.0,10.899999618530273,56.0,995.0,99500.0,59.0,0.6000000238418579,133.77207248661637,11.910143853845511,1100.9855773740946,5.052448307838878
LT_101-103_A2,True,105.0,110.0,A9,-4.609249,-15.327787,16.005819,4.664587,15.538895,16.223922,175.0,0.055338,0.211108,9.15,False,69.49845717580378,8.246393203735352,33.786176454599996,-114.14599382399999,316.1102545640957,39.125724159032,273508,31.981051974502726,89.0,11.0,39.0,1005.0,100500.0,46.0,0.8999999761581421,89.88974543590427,11.645036697387695,1258.1169733884544,5.524006006263897
LT_101-103_A2,True,106.0,110.0,10,-39.168785,-115.596832,122.052536,39.39626,116.585071,123.061546,175.0,0.227475,0.988239,69.74,False,525.4920848463788,21.264677047729492,33.82541475805,-114.23744436449999,332.2035219612036,21.973081610449327,273508,25.547898565618038,89.0,11.0,39.0,1005.0,100500.0,46.0,0.8999999761581421,73.79647803879641,23.6532039642334,1233.1633021421167,42.613341147401265
LT_101-103_A2,True,107.0,108.0,11,142.432709,-6.094769,142.563049,-138.931453,19.404224,140.279979,175.0,3.501256,13.309455,81.46,False,619.0249085346645,26.245145797729492,34.57823637615,-113.7314761945,191.80450991680215,27.040331428742554,280694,48.23352083597048,170.0,11.399999618530273,52.0,996.0,99600.0,71.0,0.8999999761581421,59.19549008319785,29.35752947817309,1208.6474477943143,51.21633356892747
LT_101-103_A2,True,107.0,203.0,B1,117.726044,-4.878215,117.827072,-111.452267,28.857276,115.127539,175.0,6.273777,23.979061,67.33,False,511.6184942685066,20.589590072631836,35.0258321095,-113.838621218,341.18656177700467,77.23111035384919,273483,67.12170109617558,151.0,10.100000381469727,43.0,991.0,99100.0,71.0,1.2000000476837158,89.81343822299533,20.29518297481627,1340.5309799813035,38.16536148054126
LT_101-103_A2,True,108.0,109.0,1,29.310354,-6.90878,30.113586,-28.887464,8.526749,30.119611,175.0,0.422891,1.617969,17.21,False,132.95643725908872,8.876733779907227,34.18982353435,-114.034962272,220.15903880363092,78.21129921512714,280694,14.468759995973627,170.0,11.399999618530273,52.0,996.0,99600.0,71.0,0.8999999761581421,30.84096119636908,13.089761355240626,1125.1468742172656,11.816807236973656
LT_101-103_A2,True,108.0,110.0,2,33.237686,-26.581203,42.559422,-32.4196,29.711181,43.974819,175.0,0.818087,3.129977,24.32,False,187.9068511111921,9.738588333129885,34.1860019329,-114.0273040675,218.96149073017423,77.97500234740549,280694,15.230903469254052,170.0,11.399999618530273,52.0,996.0,99600.0,71.0,0.8999999761581421,32.03850926982577,14.012690739040409,1130.850761954863,16.61641459978008
LT_101-103_A2,True,109.0,111.0,14,-26.045057,-9.584993,27.752785,26.062334,10.308479,28.026951,400.0,0.017276,0.723486,6.94,False,122.96242744306434,8.751249313354492,33.91241117325,-114.304699342,159.67425780531744,1.9031858797390406,273502,18.441799885429408,97.0,10.699999809265137,44.0,998.0,99800.0,59.0,0.5,79.32574219468256,12.199367524388435,1111.4303798546346,11.063439480496003
LT_101-103_A2,True,109.0,112.0,15,-40.606743,-9.770262,41.765602,40.64587,11.408792,42.216671,400.0,0.039127,1.638531,10.44,False,185.04808816631927,9.686059951782228,33.9156511436,-114.31084169450001,203.947168667828,1.1643839227143522,273502,17.80785802409589,97.0,10.699999809265137,44.0,998.0,99800.0,59.0,0.5,35.05283133217199,13.683673098081272,1038.1181103063589,17.825340520425925
LT_101-103_A2,True,110.0,111.0,16,-41.834007,29.79916,51.362186,41.889217,-27.487121,50.102379,400.0,0.05521,2.312039,12.84,False,219.81378666305488,10.372819900512695,33.9085895718,-114.2970411375,218.83185834528146,1.199999298332487,273502,19.225322946508676,97.0,10.699999809265137,44.0,998.0,99800.0,59.0,0.5,20.16814165471854,15.1908000981839,972.5705458947739,22.60132055107881
LT_101-103_A2,True,110.0,112.0,17,-56.910515,29.821733,64.250626,56.99691,-26.203781,62.731857,400.0,0.086395,3.617952,16.06,False,274.97220224489126,11.699647903442385,33.91182954215,-114.30318349000001,263.52385649728956,1.8981503306103409,273502,18.59008452775047,97.0,10.699999809265137,44.0,998.0,99800.0,59.0,0.5,155.47614350271044,16.905145650087434,994.5498949120797,27.647904207882842
LT_101-103_A2,True,111.0,113.0,18,-44.803806,8.81608,45.662941,44.948015,-7.665786,45.597021,500.0,0.144209,1.150295,9.13,False,120.20200336343233,8.718175888061523,34.1293332045,-114.287887337,2.7798809616962217,50.08528154115857,277498,4.623035951639475,151.0,10.899999618530273,56.0,995.0,99500.0,59.0,0.6000000238418579,56.22011903830378,12.500268747975497,1119.8532480993504,10.733728152991732
LT_101-103_A2,True,111.0,114.0,19,-23.148327,8.363618,24.612906,23.186181,-8.046577,24.542746,500.0,0.037854,0.317041,4.92,False,64.79040869916469,8.215265274047852,33.84073608285,-114.56051449450001,253.6860893720658,49.96150226236739,271871,2.0077707949584878,269.0,10.199999809265137,55.0,994.0,99400.0,59.0,0.699999988079071,165.3139106279342,11.540587044828499,993.5335673437644,6.521209834146156
LT_101-103_A2,True,112.0,113.0,20,-19.486378,6.919867,20.678576,19.520039,-6.651368,20.622139,500.0,0.033661,0.268499,4.14,False,54.384168824121126,8.15495491027832,34.132573174849995,-114.29402968950001,4.126021058856338,49.43428786192113,277498,4.172118022807155,151.0,10.899999618530273,56.0,995.0,99500.0,59.0,0.6000000238418579,54.87397894114366,11.870011712668202,1117.8071584882323,4.865255013903514
LT_101-103_A2,True,112.0,123.0,21,-78.156998,7.876221,78.552856,79.000129,-1.080867,79.007522,500.0,0.843131,6.795354,15.71,False,206.59216487251717,10.098505020141602,34.14643314265,-114.691095425,307.21393123188295,87.0443510046333,269416,1.9810322366643094,324.0,8.899999618530273,53.0,976.0,97600.0,346.0,1.2999999523162842,38.78606876811705,11.344164852194808,1267.499283488054,16.299193819186428
LT_101-103_A2,True,113.0,123.0,22,-76.100121,3.862089,76.198051,76.823677,1.843827,76.8458,500.0,0.723556,5.705916,15.24,False,201.34080208958736,9.993448257446287,34.3681403032,-114.6717226875,272.6456124243665,72.95310639099516,270224,1.0590202066430323,388.0,8.899999618530273,43.0,971.0,97100.0,71.0,1.2000000476837158,158.3543875756335,11.66606808146389,1149.3614206940665,17.517623130938517
LT_101-103_A2,True,113.0,215.0,B2,17.885609,-22.258039,28.553728,-17.824734,22.713261,28.872364,500.0,0.060874,0.455222,5.71,False,75.44852424332886,8.289194107055664,34.7514356122,-114.425215633,342.78515118710203,92.50852375989442,273483,7.038480495579008,151.0,10.100000381469727,43.0,991.0,99100.0,71.0,1.2000000476837158,88.21484881289797,10.741060065203783,1336.7947023136414,5.64398737612793
LT_101-103_A2,True,114.0,116.0,23,-109.842598,-1.429663,109.851898,110.512105,9.306715,110.903292,500.0,0.669507,7.877052,21.97,False,290.4352329494844,12.122793197631836,33.71905866655,-115.07048464,254.58110202453383,48.11325865555416,262163,1.5254500733407452,387.0,9.100000381469727,50.0,990.0,99000.0,7.0,2.0,112.41889797546617,12.096271319413063,1487.8570198426282,19.520372527476056
LT_101-103_A2,True,115.0,116.0,24,9.990216,27.634651,29.385,-9.969498,-27.45906,29.212855,500.0,0.020718,0.175591,5.88,False,76.70549537356295,8.297948837280273,33.5836074796,-115.325283222,2.6007230139453554,17.236067799848346,256615,1.991195585655014,994.0,4.800000190734863,47.0,910.0,91000.0,14.0,1.600000023841858,11.399276986054645,5.834044837147303,1151.5740507594417,6.660926001500043
LT_101-103_A2,True,115.0,121.0,1,-75.359253,2.519898,75.401375,75.731151,0.508381,75.732858,500.0,0.371899,3.028278,15.08,False,196.82490458474683,9.905900955200195,33.5166525943,-115.700143213,272.1450146356158,68.75953430638423,249642,1.4759306061184725,343.0,9.899999618530273,41.0,989.0,98900.0,14.0,1.399999976158142,101.85498536438422,11.689227488499455,1369.8872302838884,14.367964036277487
LT_101-103_A2,True,115.0,121.0,2,-75.359253,2.519898,75.401375,75.731151,0.508381,75.732858,500.0,0.371899,3.028278,15.08,False,196.82490458474683,9.905900955200195,33.5166525943,-115.700143213,272.1450146356158,68.75953430638423,249642,1.4759306061184725,343.0,9.899999618530273,41.0,989.0,98900.0,14.0,1.399999976158142,101.85498536438422,11.689227488499455,1369.8872302838884,14.367964036277487
LT_101-103_A2,True,115.0,124.0,26,75.964287,9.045987,76.500992,-75.512486,-5.699582,75.727279,500.0,0.4518,3.346405,15.3,False,199.6953033156024,9.961347579956056,33.524574389449995,-114.9929983545,86.0634407392426,62.52120431249092,263770,1.2987773397332119,181.0,9.0,49.0,991.0,99100.0,7.0,2.0999999046325684,100.9365592607574,10.541276931762695,1525.7012215159837,13.08875555052509
LT_101-103_A2,True,116.0,117.0,27,-100.778305,-2.763834,100.8162,101.111502,5.643088,101.268852,500.0,0.333197,2.879254,20.16,False,264.6448164479809,11.429224014282228,33.6181318947,-115.48093336950001,252.22842579087137,31.107139968025567,253477,1.9140400448987045,626.0,7.900000095367432,42.0,957.0,95700.0,14.0,1.399999976158142,121.77157420912863,11.015556238854515,1350.8931590506336,19.590358769302316
LT_101-103_A2,True,116.0,119.0,28,32.406174,16.002228,36.141823,-32.360811,-15.655467,35.948794,500.0,0.045362,0.346761,7.23,False,94.87310684126574,8.451642990112305,33.76505507735,-115.3450942825,349.13986505303745,23.556813083232125,256610,0.7090697519730219,173.0,9.800000190734863,33.0,999.0,99900.0,347.0,1.5,177.86013494696255,10.984305380834485,1029.0886267547437,9.21913860232334
...